models/240bus_psse/WECC240_20231006.raw
 0, 100.00, 33,  ,  ,   / EXPORT BY PSAT
SIMPLIFIED WECC240 MODEL: PRELIMINARY DRAFT, RESEARCH ONLY
FOR PSERC PROJECT M21 - SEE PROJECT DOCUMENTS FOR DETAILS
    1001,'FOURCORN    ', 500.0000,1,   1,   3,   1,1.01418,  22.7142,/* [                                ] */
    1002,'FOURCORN    ', 345.0000,1,   1,   3,   1,1.01400,  27.1688,/* [                                ] */
    1003,'FOURCORN    ', 230.0000,2,   1,  10,   1,0.97343,  18.5878,/* [                                ] */
    1004,'SAN JUAN    ', 345.0000,2,   1,  10,   1,1.04740,  40.1546,/* [                                ] */
    1032,'FCNGN4CC    ',  20.0000,2,   1,  10,   1,1.01757,  27.7433,/* [                                ] */
    1034,'SJUAN G4    ',  20.0000,2,   1,  10,   1,1.05051,  41.7151,/* [                                ] */
    1101,'CORONADO    ', 500.0000,2,   1,   3,   1,1.00880,  -2.1343,/* [                                ] */
    1102,'CHOLLA      ', 345.0000,1,   1,   3,   1,0.97698,   9.7356,/* [                                ] */
    1131,'CORONADO    ',  20.0000,2,   1,   3,   1,1.01000,  -1.4050,/* [                                ] */
    1201,'MOENKOPI    ', 500.0000,1,   1,   3,   1,1.02559,   2.4000,/* [                                ] */
    1202,'NAVAJO      ', 500.0000,1,   1,   3,   1,1.00000,   5.8932,/* [                                ] */
    1232,'NAVAJO 2    ',  20.0000,2,   1,   3,   1,0.99656,   6.8462,/* [                                ] */
    1301,'MEAD        ', 500.0000,2,   1,   3,   1,1.04363,  -3.2670,/* [                                ] */
    1302,'H ALLEN     ', 500.0000,1,   1,   9,   1,1.00688,  -2.4861,/* [                                ] */
    1303,'H ALLEN     ', 345.0000,2,   1,   9,   1,1.00005,  -4.9900,/* [                                ] */
    1331,'HOOVER      ',  20.0000,2,   1,   3,   1,1.04500,  -2.1941,/* [                                ] */
    1333,'H ALLEN     ',  20.0000,2,   1,   9,   1,1.00500,  -3.5490,/* [                                ] */
    1401,'PALOVRDE    ', 500.0000,2,   1,   3,   1,1.02826,  -7.6047,/* [                                ] */
    1402,'WESTWING    ', 500.0000,2,   1,   3,   1,1.03900, -13.1506,/* [                                ] */
    1403,'PARKER      ', 230.0000,1,   1,   3,   1,1.03066,  -7.8746,/* [                                ] */
    1431,'PALOVRD2    ',  20.0000,2,   1,   3,   1,1.03500,  -5.2961,/* [                                ] */
    2000,'MEXICO      ', 230.0000,1,   2,   7,   1,1.00000, -14.8676,/* [                                ] */
    2030,'MEXICO      ',  20.0000,2,   2,   7,   1,1.00152, -14.1533,/* [                                ] */
    2100,'IMPERIAL    ', 230.0000,1,   2,   2,   1,1.03500,  -9.2736,/* [                                ] */
    2130,'IMPERIAL    ',  20.0000,2,   2,   2,   1,1.03604,  -8.9273,/* [                                ] */
    2201,'MIGUEL      ', 500.0000,1,   2,   2,   1,0.98424, -26.7767,/* [                                ] */
    2202,'MIGUEL      ', 230.0000,2,   2,   2,   1,0.98239, -28.3040,/* [                                ] */
    2203,'MISSION     ', 230.0000,2,   2,   2,   1,1.00257, -30.1386,/* [                                ] */
    2233,'MISSION     ',  20.0000,2,   2,   2,   1,1.00500, -29.9225,/* [                                ] */
    2301,'IMPRLVLY    ', 500.0000,1,   2,   2,   1,1.03291, -11.9297,/* [                                ] */
    2302,'IMPRLVLY    ', 230.0000,1,   2,   2,   1,1.03500, -10.8781,/* [                                ] */
    2332,'IMPRLVLY    ',  20.0000,2,   2,   2,   1,1.03574, -10.6434,/* [                                ] */
    2400,'DEVERS      ', 500.0000,2,   2,   2,   1,1.01873, -16.8321,/* [                                ] */
    2401,'LUGO        ', 500.0000,2,   2,   2,   1,1.02528, -11.1517,/* [                                ] */
    2402,'MIRALOMA    ', 500.0000,2,   2,   2,   1,1.01654, -16.6795,/* [                                ] */
    2403,'VALLEY      ', 500.0000,2,   2,   2,   1,1.01417, -20.6202,/* [                                ] */
    2404,'VINCENT     ', 500.0000,1,   2,   2,   1,1.02742,  -6.5563,/* [                                ] */
    2405,'SYLMAR S    ', 230.0000,2,   2,   2,   1,1.01242, -10.1476,/* [                                ] */
    2406,'EAGLROCK    ', 230.0000,2,   2,   2,   1,1.00779, -15.4667,/* [                                ] */
    2407,'LITEHIPE    ', 230.0000,2,   2,   2,   1,0.97031, -23.4550,/* [                                ] */
    2408,'MESA CAL    ', 230.0000,2,   2,   2,   1,1.00803, -10.9459,/* [                                ] */
    2409,'MIRALOMA    ', 230.0000,2,   2,   2,   1,1.01992, -18.3515,/* [                                ] */
    2410,'PARDEE      ', 230.0000,2,   2,   2,   1,1.00691, -13.7160,/* [                                ] */
    2411,'VINCENT     ', 230.0000,2,   2,   2,   1,1.02002,  -8.9231,/* [                                ] */
    2431,'LUGO        ',  20.0000,2,   2,   2,   1,1.02450, -11.1244,/* [                                ] */
    2434,'VINCENT     ',  20.0000,2,   2,   2,   1,1.02000,  -8.8955,/* [                                ] */
    2438,'MESA CAL    ',  20.0000,2,   2,   2,   1,1.00900,  -9.6228,/* [                                ] */
    2439,'MIRALOMA    ',  20.0000,2,   2,   2,   1,1.02000, -18.2964,/* [                                ] */
    2501,'SERRANO     ', 500.0000,1,   2,   2,   1,1.01342, -19.2922,/* [                                ] */
    2502,'SERRANO     ', 230.0000,2,   2,   2,   1,1.01270, -21.0786,/* [                                ] */
    2503,'S.ONOFRE    ', 230.0000,2,   2,   2,   1,1.00766, -24.4930,/* [                                ] */
    2533,'S.ONOFRE    ',  20.0000,2,   2,   2,   1,1.00900, -23.9579,/* [                                ] */
    2600,'ADELANTO    ', 500.0000,2,   2,   2,   1,1.05417,  -6.3050,/* [                                ] */
    2601,'RINALDI     ', 500.0000,1,   2,   2,   1,1.04571,  -7.6005,/* [                                ] */
    2602,'STA E       ', 500.0000,1,   2,   2,   1,1.02162,  -7.8164,/* [                                ] */
    2603,'VICTORVL    ', 500.0000,1,   2,   2,   1,1.05030,  -6.9419,/* [                                ] */
    2604,'INTERMT     ', 345.0000,1,   2,   2,   1,1.06000,  37.9332,/* [                                ] */
    2605,'STA B1      ', 287.0000,1,   2,   2,   1,1.01944,  -5.9959,/* [                                ] */
    2606,'STA B2      ', 287.0000,1,   2,   2,   1,1.01944,  -5.9959,/* [                                ] */
    2607,'VICTORVL    ', 287.0000,1,   2,   2,   1,1.04402,  -6.6666,/* [                                ] */
    2608,'CASTAIC     ', 230.0000,1,   2,   2,   1,1.02038,  -9.6938,/* [                                ] */
    2609,'GLENDAL     ', 230.0000,1,   2,   2,   1,0.99955,  -6.7870,/* [                                ] */
    2610,'HAYNES      ', 230.0000,1,   2,   2,   1,1.00400,   7.1977,/* [                                ] */
    2611,'OLIVE       ', 230.0000,1,   2,   2,   1,1.01794,  -8.8856,/* [                                ] */
    2612,'RINALDI     ', 230.0000,1,   2,   2,   1,1.01500,  -9.0911,/* [                                ] */
    2613,'RIVER       ', 230.0000,2,   2,   2,   1,0.99430,  -3.3877,/* [                                ] */
    2614,'STA BLD     ', 230.0000,1,   2,   2,   1,1.00143,  -4.8973,/* [                                ] */
    2615,'STA E       ', 230.0000,2,   2,   2,   1,1.00548,  -8.1181,/* [                                ] */
    2616,'STA F       ', 230.0000,1,   2,   2,   1,0.99618,  -3.7056,/* [                                ] */
    2617,'STA G       ', 230.0000,1,   2,   2,   1,0.99748,  -5.3845,/* [                                ] */
    2618,'STA J       ', 230.0000,2,   2,   2,   1,1.01247, -10.2124,/* [                                ] */
    2619,'SYLMARLA    ', 230.0000,2,   2,   2,   1,1.01383,  -8.7200,/* [                                ] */
    2620,'VALLEY      ', 230.0000,1,   2,   2,   1,1.01007,  -9.1436,/* [                                ] */
    2621,'STA B       ', 138.0000,1,   2,   2,   1,1.01187,  -5.8854,/* [                                ] */
    2630,'HAYNES3G    ',  20.0000,2,   2,   2,   1,1.00487,   7.8420,/* [                                ] */
    2631,'OLIVE       ',  20.0000,2,   2,   2,   1,1.01825,  -8.8215,/* [                                ] */
    2634,'INTERM1G    ',  20.0000,2,   2,   2,   1,1.06259,  38.3241,/* [                                ] */
    2637,'OWENS G     ',  20.0000,2,   2,   2,   1,1.01531,  -9.0875,/* [                                ] */
    2638,'CASTAI4G    ',  20.0000,2,   2,   2,   1,1.02068,  -9.6938,/* [                                ] */
    2901,'ELDORADO    ', 500.0000,1,   2,   2,   1,1.06388,  -4.6312,/* [                                ] */
    2902,'MOHAVE      ', 500.0000,1,   2,   2,   1,1.07804,  -6.6995,/* [                                ] */
    3101,'EMBRCDRD    ', 230.0000,2,   2,   2,   1,0.98582,  -4.0826,/* [                                ] */
    3102,'MARTIN      ', 230.0000,1,   2,   2,   1,0.99097,  -2.8754,/* [                                ] */
    3103,'SANMATEO    ', 230.0000,2,   2,   2,   1,1.00000,  -1.0134,/* [                                ] */
    3104,'MARTIN      ', 115.0000,2,   2,   2,   1,0.98730,  -8.4477,/* [                                ] */
    3105,'POTRERO     ', 115.0000,1,   2,   2,   1,1.00000,  -8.8546,/* [                                ] */
    3133,'SANMATEO    ',  20.0000,2,   2,   2,   1,1.00133,  -1.0131,/* [                                ] */
    3135,'POTRERO     ',  20.0000,2,   2,   2,   1,1.00044,  -8.7916,/* [                                ] */
    3201,'C.COSTA     ', 230.0000,2,   2,   2,   1,0.99389,   0.3010,/* [                                ] */
    3202,'MORAGA      ', 230.0000,2,   2,   2,   1,0.99409,   0.5551,/* [                                ] */
    3203,'NEWARK      ', 230.0000,2,   2,   2,   1,0.99665,   0.0508,/* [                                ] */
    3204,'PITSBURG    ', 230.0000,2,   2,   2,   1,1.00810,   3.6824,/* [                                ] */
    3205,'SOBRANTE    ', 230.0000,2,   2,   2,   1,0.99623,   1.4212,/* [                                ] */
    3234,'PITSBURG    ',  20.0000,2,   2,   2,   1,1.01000,   4.8025,/* [                                ] */
    3301,'METCALF     ', 500.0000,1,   2,   2,   1,0.99468,   4.1018,/* [                                ] */
    3302,'JEFFERSN    ', 230.0000,2,   2,   2,   1,0.98524,  -2.5865,/* [                                ] */
    3303,'METCALF     ', 230.0000,2,   2,   2,   1,1.00000,   0.8926,/* [                                ] */
    3304,'MONTAVIS    ', 230.0000,2,   2,   2,   1,0.98959,  -1.2308,/* [                                ] */
    3305,'RAVENSWD    ', 230.0000,2,   2,   2,   1,0.99768,  -1.4440,/* [                                ] */
    3333,'METCALF     ',  20.0000,2,   2,   2,   1,1.00253,   1.1000,/* [                                ] */
    3401,'GREGG       ', 230.0000,2,   2,   2,   1,0.97803,  -9.5462,/* [                                ] */
    3402,'HELMS PP    ', 230.0000,1,   2,   2,   1,1.00000,  -9.6854,/* [                                ] */
    3403,'MC CALL     ', 230.0000,2,   2,   2,   1,1.00000,   1.9378,/* [                                ] */
    3404,'PANOCHE     ', 230.0000,2,   2,   2,   1,0.98994,  -3.4481,/* [                                ] */
    3405,'WILSON      ', 230.0000,2,   2,   2,   1,0.96754, -11.3927,/* [                                ] */
    3432,'HELMS PP    ',  20.0000,2,   2,   2,   1,1.00069,  -9.6854,/* [                                ] */
    3433,'MC CALL     ',  20.0000,2,   2,   2,   1,1.00027,   2.2543,/* [                                ] */
    3501,'FULTON      ', 230.0000,2,   2,   2,   1,1.00000,   5.3838,/* [                                ] */
    3531,'FULTON      ',  20.0000,2,   2,   2,   1,1.00062,   5.6884,/* [                                ] */
    3601,'HUMBOLDT    ', 115.0000,1,   2,   2,   1,1.01500,  17.4073,/* [                                ] */
    3631,'HUMBOLDT    ',  20.0000,2,   2,   2,   1,1.01497,  17.4342,/* [                                ] */
    3701,'SUMMIT      ', 115.0000,1,   1,   9,   1,0.98633,   2.0498,/* [                                ] */
    3731,'SUMMIT      ',  20.0000,2,   1,   9,   1,0.98734,   2.1151,/* [                                ] */
    3801,'DIABLO      ', 500.0000,1,   2,   2,   1,1.04900,   4.8046,/* [                                ] */
    3802,'GATES       ', 500.0000,1,   2,   2,   1,1.02924,  -0.7137,/* [                                ] */
    3803,'MIDWAY      ', 500.0000,1,   2,   2,   1,1.03705,  -2.7460,/* [                                ] */
    3804,'GATES       ', 230.0000,1,   2,   2,   1,1.00092,  -2.8226,/* [                                ] */
    3805,'MIDWAY      ', 230.0000,2,   2,   2,   1,1.03408,  -2.5147,/* [                                ] */
    3806,'MORROBAY    ', 230.0000,1,   2,   2,   1,1.01900,   0.4586,/* [                                ] */
    3831,'DIABLO1     ',  20.0000,2,   2,   2,   1,1.04942,   5.3531,/* [                                ] */
    3835,'MIDWAY      ',  20.0000,2,   2,   2,   1,1.03500,  -2.4186,/* [                                ] */
    3836,'MORROBAY    ',  20.0000,2,   2,   2,   1,1.01903,   0.6459,/* [                                ] */
    3891,'GATES1      ', 500.0000,1,   2,   2,   1,1.04495,  -5.9400,/* [                                ] */
    3892,'MIDWAY1     ', 500.0000,1,   2,   2,   1,1.03210,   1.5873,/* [                                ] */
    3893,'MIDWAY2     ', 500.0000,1,   2,   2,   1,1.02447, -10.9183,/* [                                ] */
    3894,'MIDWAY3     ', 500.0000,1,   2,   2,   1,1.03193,   1.6596,/* [                                ] */
    3895,'MIDWAY4     ', 500.0000,1,   2,   2,   1,1.02471, -10.9468,/* [                                ] */
    3896,'MIDWAY5     ', 500.0000,1,   2,   2,   1,1.03264,   1.8752,/* [                                ] */
    3897,'MIDWAY6     ', 500.0000,1,   2,   2,   1,1.02630, -10.7306,/* [                                ] */
    3901,'LOSBANOS    ', 500.0000,1,   2,   2,   1,1.01042,   2.5155,/* [                                ] */
    3902,'MOSSLAND    ', 500.0000,1,   2,   2,   1,1.00000,   5.8481,/* [                                ] */
    3903,'TESLA       ', 500.0000,1,   2,   2,   1,0.98820,   7.8621,/* [                                ] */
    3904,'VACA-DIX    ', 500.0000,1,   2,   2,   1,0.98194,   8.6261,/* [                                ] */
    3905,'TABLE MT    ', 500.0000,1,   2,   2,   1,0.98593,  17.9626,/* [                                ] */
    3906,'ROUND MT    ', 500.0000,1,   2,   2,   1,1.03127,  25.7558,/* [                                ] */
    3907,'BELLOTA     ', 230.0000,2,   2,   2,   1,0.97028,  -9.4918,/* [                                ] */
    3908,'BRIGHTON    ', 230.0000,1,   2,   2,   1,0.95999,  -7.8793,/* [                                ] */
    3909,'COLGATE     ', 230.0000,1,   2,   2,   1,0.94690,  -2.8630,/* [                                ] */
    3910,'CORTINA     ', 230.0000,1,   2,   2,   1,0.94168,  -1.3251,/* [                                ] */
    3911,'COTWDPGE    ', 230.0000,1,   2,   2,   1,1.02071,  17.6366,/* [                                ] */
    3912,'GLENN       ', 230.0000,1,   2,   2,   1,0.99130,   6.3745,/* [                                ] */
    3913,'GOLDHILL    ', 230.0000,2,   2,   2,   1,0.97712,  -4.1263,/* [                                ] */
    3914,'IGNACIO     ', 230.0000,1,   2,   2,   1,0.98788,   1.5292,/* [                                ] */
    3915,'LAKEVILE    ', 230.0000,1,   2,   2,   1,0.98859,   1.5537,/* [                                ] */
    3916,'LOGAN CR    ', 230.0000,1,   2,   2,   1,0.98793,   5.2121,/* [                                ] */
    3917,'LOSBANOS    ', 230.0000,1,   2,   2,   1,0.99806,  -1.1858,/* [                                ] */
    3918,'MOSSLAND    ', 230.0000,2,   2,   2,   1,0.99340,   0.6566,/* [                                ] */
    3919,'PALERMO     ', 230.0000,1,   2,   2,   1,0.94491,   0.0692,/* [                                ] */
    3920,'RIO OSO     ', 230.0000,1,   2,   2,   1,0.96374,  -2.6900,/* [                                ] */
    3921,'ROUND MT    ', 230.0000,1,   2,   2,   1,1.07000,  28.6548,/* [                                ] */
    3922,'TABLE MT    ', 230.0000,1,   2,   2,   1,0.95914,   6.3210,/* [                                ] */
    3923,'TESLA       ', 230.0000,2,   2,   2,   1,1.01506,  -0.0412,/* [                                ] */
    3924,'VACA-DIX    ', 230.0000,2,   2,   2,   1,0.98891,   2.0642,/* [                                ] */
    3925,'COTWDPGE    ', 115.0000,1,   2,   2,   1,1.01903,  17.5098,/* [                                ] */
    3926,'RIO OSO     ', 115.0000,1,   2,   2,   1,0.97101,  -1.4229,/* [                                ] */
    3931,'ROUND MT    ',  20.0000,2,   2,   2,   1,1.07206,  29.0162,/* [                                ] */
    3932,'MOSSLAND    ',  20.0000,2,   2,   2,   1,1.00022,   6.2362,/* [                                ] */
    3933,'TESLA       ',  20.0000,3,   2,   2,   1,1.02000,   0.0000,/* [                                ] */
    4001,'MALIN       ', 500.0000,1,   3,  11,   1,1.05455,  30.2861,/* [                                ] */
    4002,'SUMMER L    ', 500.0000,1,   3,  11,   1,1.06503,  40.1975,/* [                                ] */
    4003,'BURNS       ', 500.0000,1,   3,  11,   1,1.08193,  54.7943,/* [                                ] */
    4004,'GRIZZLY     ', 500.0000,1,   3,  11,   1,1.06131,  41.5856,/* [                                ] */
    4005,'JOHN DAY    ', 500.0000,1,   3,  11,   1,1.06000,  52.1042,/* [                                ] */
    4006,'BIG EDDY    ', 500.0000,1,   3,  11,   1,1.05113,  49.3502,/* [                                ] */
    4007,'CELILOCA    ', 500.0000,1,   3,  11,   1,1.05102,  49.2093,/* [                                ] */
    4008,'MALIN       ', 345.0000,1,   3,  11,   1,1.04688,  27.7924,/* [                                ] */
    4009,'BIG EDDY    ', 230.0000,2,   3,  11,   1,1.05195,  47.5528,/* [                                ] */
    4010,'CELILO      ', 230.0000,1,   3,  11,   1,1.05128,  47.1322,/* [                                ] */
    4031,'MALIN       ',  20.0000,2,   3,  11,   1,1.06150,  30.7284,/* [                                ] */
    4035,'JOHN DAY    ',  20.0000,2,   3,  11,   1,1.06518,  52.7487,/* [                                ] */
    4039,'DALLES21    ',  20.0000,2,   3,  13,   1,1.05586,  48.1963,/* [                                ] */
    4090,'MALIN1      ', 500.0000,1,   3,  11,   1,1.06316,  38.7534,/* [                                ] */
    4091,'GRIZZLY1    ', 500.0000,1,   3,  11,   1,1.06679,  40.9954,/* [                                ] */
    4092,'GRIZZLY2    ', 500.0000,1,   3,  11,   1,1.06614,  33.0836,/* [                                ] */
    4093,'GRIZZLY3    ', 500.0000,1,   3,  11,   1,1.06869,  31.9960,/* [                                ] */
    4094,'GRIZZLY4    ', 500.0000,1,   3,  11,   1,1.05905,  40.4058,/* [                                ] */
    4095,'GRIZZLY5    ', 500.0000,1,   3,  11,   1,1.06626,  32.6068,/* [                                ] */
    4096,'GRIZZLY6    ', 500.0000,1,   3,  11,   1,1.06909,  31.4594,/* [                                ] */
    4097,'GRIZZLY7    ', 500.0000,1,   3,  11,   1,1.05851,  40.3414,/* [                                ] */
    4101,'COULEE      ', 500.0000,1,   3,  13,   1,1.06000,  79.7895,/* [                                ] */
    4102,'HANFORD     ', 500.0000,1,   3,  13,   1,1.06000,  68.0097,/* [                                ] */
    4103,'BELL        ', 500.0000,1,   3,  13,   1,1.01662,  63.1080,/* [                                ] */
    4104,'BELL        ', 230.0000,1,   3,  13,   1,0.99713,  50.8669,/* [                                ] */
    4131,'COULEE      ',  20.0000,2,   3,  13,   1,1.06231,  82.1714,/* [                                ] */
    4132,'HANFORD     ',  20.0000,2,   3,  13,   1,1.06997,  69.9229,/* [                                ] */
    4201,'NORTH       ', 500.0000,2,   3,  13,   1,1.05617,  71.0722,/* [                                ] */
    4202,'WCASCADE    ', 500.0000,1,   3,  13,   1,1.02449,  50.1659,/* [                                ] */
    4203,'WILLAMET    ', 500.0000,1,   3,  13,   1,0.97644,  44.3822,/* [                                ] */
    4204,'MERIDIAN    ', 500.0000,1,   3,  13,   1,1.04041,  31.5297,/* [                                ] */
    4231,'NORTH G3    ',  20.0000,2,   3,  13,   1,1.06000,  72.2294,/* [                                ] */
    4232,'WCASCADE    ',  20.0000,2,   3,  13,   1,1.02927,  50.4338,/* [                                ] */
    5001,'CANADA      ', 500.0000,1,   3,   4,   1,1.05000,  71.3142,/* [                                ] */
    5002,'CANALB      ', 500.0000,1,   3,   1,   1,1.05500,  72.0538,/* [                                ] */
    5003,'CA230TO     ', 230.0000,1,   3,   1,   1,1.03671,  65.3359,/* [                                ] */
    5004,'CA230       ', 230.0000,1,   3,   4,   1,1.01696,  58.1967,/* [                                ] */
    5031,'CANAD G1    ',  20.0000,2,   3,   4,   1,1.05511,  73.2677,/* [                                ] */
    5032,'CMAIN GM    ',  20.0000,2,   3,   1,   1,1.06210,  74.7370,/* [                                ] */
    6101,'MIDPOINT    ', 500.0000,1,   3,   6,   1,1.09112,  71.4573,/* [                                ] */
    6102,'MIDPOINT    ', 345.0000,1,   3,   6,   1,1.08000,  75.9020,/* [                                ] */
    6103,'BORAH       ', 345.0000,1,   3,   6,   1,1.03809,  71.5204,/* [                                ] */
...
0 / END OF BUS DATA, BEGIN LOAD DATA
    1002,'1 ',1,   1,   3,   226.842,  -600.000,     0.000,     0.000,     0.000,     0.000,   1,1,0,/* [                                ] */
    1003,'1 ',1,   1,  10,  2153.320,   366.855,     0.000,     0.000,     0.000,     0.000,   1,1,0,/* [                                ] */
    1004,'1 ',1,   1,  10,  1037.949,     5.521,     0.000,     0.000,     0.000,     0.000,   1,1,0,/* [                                ] */
    1101,'1 ',1,   1,   3,  4527.366,  -137.044,     0.000,     0.000,     0.000,     0.000,   1,1,0,/* [                                ] */
    1102,'1 ',1,   1,   3,   176.445,    23.004,     0.000,     0.000,     0.000,     0.000,   1,1,0,/* [                                ] */
    1201,'1 ',1,   1,   3,   166.989,    -2.012,     0.000,     0.000,     0.000,     0.000,   1,1,0,/* [                                ] */
    1202,'1 ',1,   1,   3,   875.610,   287.132,     0.000,     0.000,     0.000,     0.000,   1,1,0,/* [                                ] */
    1301,'1 ',1,   1,   3,  2704.779,   352.826,     0.000,     0.000,     0.000,     0.000,   1,1,0,/* [                                ] */
    1302,'1 ',1,   1,   9,    17.556,     2.304,     0.000,     0.000,     0.000,     0.000,   1,1,0,/* [                                ] */
    1303,'1 ',1,   1,   9,  6235.137,   813.349,     0.000,     0.000,     0.000,     0.000,   1,1,0,/* [                                ] */
    1401,'1 ',1,   1,   3,  6535.537,  1524.594,     0.000,     0.000,     0.000,     0.000,   1,1,0,/* [                                ] */
    1402,'1 ',1,   1,   3,  5366.628,  -600.161,     0.000,     0.000,     0.000,     0.000,   1,1,0,/* [                                ] */
    2000,'1 ',1,   2,   7,  2207.188,   287.916,     0.000,     0.000,     0.000,     0.000,   1,1,0,/* [                                ] */
    2100,'1 ',1,   2,   2,   281.150,    54.830,     0.000,     0.000,     0.000,     0.000,   1,1,0,/* [                                ] */
    2202,'1 ',1,   2,   2,  1545.957,   268.567,     0.000,     0.000,     0.000,     0.000,   1,1,0,/* [                                ] */
    2203,'1 ',1,   2,   2,  1708.552,   278.273,     0.000,     0.000,     0.000,     0.000,   1,1,0,/* [                                ] */
    2400,'1 ',1,   2,   2,   843.297,    76.664,     0.000,     0.000,     0.000,     0.000,   1,1,0,/* [                                ] */
    2401,'1 ',1,   2,   2,   882.365,   105.214,     0.000,     0.000,     0.000,     0.000,   1,1,0,/* [                                ] */
    2402,'1 ',1,   2,   2,  1080.022,    81.979,     0.000,     0.000,     0.000,     0.000,   1,1,0,/* [                                ] */
    2403,'1 ',1,   2,   2,  1050.001,    38.542,     0.000,     0.000,     0.000,     0.000,   1,1,0,/* [                                ] */
    2405,'1 ',1,   2,   2,   824.686,    22.901,     0.000,     0.000,     0.000,     0.000,   1,1,0,/* [                                ] */
    2406,'1 ',1,   2,   2,   737.405,   -40.751,     0.000,     0.000,     0.000,     0.000,   1,1,0,/* [                                ] */
    2407,'1 ',1,   2,   2,  1732.775,   -36.535,     0.000,     0.000,     0.000,     0.000,   1,1,0,/* [                                ] */
    2408,'1 ',1,   2,   2,  1743.278,   -72.623,     0.000,     0.000,     0.000,     0.000,   1,1,0,/* [                                ] */
    2409,'1 ',1,   2,   2,  1601.778,   -86.698,     0.000,     0.000,     0.000,     0.000,   1,1,0,/* [                                ] */
    2410,'1 ',1,   2,   2,  1576.785,    58.184,     0.000,     0.000,     0.000,     0.000,   1,1,0,/* [                                ] */
    2411,'1 ',1,   2,   2,  1087.628,    75.956,     0.000,     0.000,     0.000,     0.000,   1,1,0,/* [                                ] */
    2502,'1 ',1,   2,   2,  2369.146,   -91.905,     0.000,     0.000,     0.000,     0.000,   1,1,0,/* [                                ] */
    2503,'1 ',1,   2,   2,  1845.926,   201.991,     0.000,     0.000,     0.000,     0.000,   1,1,0,/* [                                ] */
    2600,'1 ',0,   2,   2, -1863.906,     0.000,     0.000,     0.000,     0.000,     0.000,   1,1,0,/* [                                ] */
    2602,'1 ',1,   2,   2,    99.278,    12.955,     0.000,     0.000,     0.000,     0.000,   1,1,0,/* [                                ] */
    2604,'1 ',1,   2,   2,  2050.781,     0.000,     0.000,     0.000,     0.000,     0.000,   1,1,0,/* [                                ] */
    2608,'1 ',1,   2,   2,    99.278,    12.955,     0.000,     0.000,     0.000,     0.000,   1,1,0,/* [                                ] */
    2609,'1 ',1,   2,   2,   134.026,    26.805,     0.000,     0.000,     0.000,     0.000,   1,1,0,/* [                                ] */
    2610,'1 ',1,   2,   2,    99.278,    12.955,     0.000,     0.000,     0.000,     0.000,   1,1,0,/* [                                ] */
    2611,'1 ',1,   2,   2,    99.278,    12.955,     0.000,     0.000,     0.000,     0.000,   1,1,0,/* [                                ] */
    2612,'1 ',1,   2,   2,   120.127,    24.819,     0.000,     0.000,     0.000,     0.000,   1,1,0,/* [                                ] */
    2613,'1 ',1,   2,   2,   317.693,    64.531,     0.000,     0.000,     0.000,     0.000,   1,1,0,/* [                                ] */
    2614,'1 ',1,   2,   2,   137.005,    27.798,     0.000,     0.000,     0.000,     0.000,   1,1,0,/* [                                ] */
    2615,'1 ',1,   2,   2,   801.977,   131.149,     0.000,     0.000,     0.000,     0.000,   1,1,0,/* [                                ] */
    2616,'1 ',1,   2,   2,   116.157,    23.827,     0.000,     0.000,     0.000,     0.000,   1,1,0,/* [                                ] */
    2617,'1 ',1,   2,   2,   120.128,    24.819,     0.000,     0.000,     0.000,     0.000,   1,1,0,/* [                                ] */
    2618,'1 ',1,   2,   2,   881.302,    -6.155,     0.000,     0.000,     0.000,     0.000,   1,1,0,/* [                                ] */
    2619,'1 ',0,   2,   2, -2773.830,     0.000,     0.000,     0.000,     0.000,     0.000,   1,1,0,/* [                                ] */
    2620,'1 ',1,   2,   2,   203.720,    17.473,     0.000,     0.000,     0.000,     0.000,   1,1,0,/* [                                ] */
    2621,'1 ',1,   2,   2,   235.491,   -62.746,     0.000,     0.000,     0.000,     0.000,   1,1,0,/* [                                ] */
    3101,'1 ',1,   2,   2,   341.307,    52.829,     0.000,     0.000,     0.000,     0.000,   1,1,0,/* [                                ] */
    3102,'1 ',1,   2,   2,   159.465,    24.929,     0.000,     0.000,     0.000,     0.000,   1,1,0,/* [                                ] */
    3103,'1 ',1,   2,   2,   419.611,    59.777,     0.000,     0.000,     0.000,     0.000,   1,1,0,/* [                                ] */
    3104,'1 ',1,   2,   2,   309.973,    40.133,     0.000,     0.000,     0.000,     0.000,   1,1,0,/* [                                ] */
    3105,'1 ',1,   2,   2,   239.302,    49.091,     0.000,     0.000,     0.000,     0.000,   1,1,0,/* [                                ] */
    3201,'1 ',1,   2,   2,   462.477,    97.849,     0.000,     0.000,     0.000,     0.000,   1,1,0,/* [                                ] */
    3202,'1 ',1,   2,   2,   586.180,    83.474,     0.000,     0.000,     0.000,     0.000,   1,1,0,/* [                                ] */
    3203,'1 ',1,   2,   2,   657.104,   158.475,     0.000,     0.000,     0.000,     0.000,   1,1,0,/* [                                ] */
    3204,'1 ',1,   2,   2,   668.788,    95.313,     0.000,     0.000,     0.000,     0.000,   1,1,0,/* [                                ] */
    3205,'1 ',1,   2,   2,   546.059,    77.781,     0.000,     0.000,     0.000,     0.000,   1,1,0,/* [                                ] */
    3302,'1 ',1,   2,   2,   345.326,    85.790,     0.000,     0.000,     0.000,     0.000,   1,1,0,/* [                                ] */
    3303,'1 ',1,   2,   2,   625.411,   150.715,     0.000,     0.000,     0.000,     0.000,   1,1,0,/* [                                ] */
    3304,'1 ',1,   2,   2,   533.480,   122.615,     0.000,     0.000,     0.000,     0.000,   1,1,0,/* [                                ] */
    3305,'1 ',1,   2,   2,   430.321,    61.225,     0.000,     0.000,     0.000,     0.000,   1,1,0,/* [                                ] */
    3401,'1 ',1,   2,   2,   557.707,   135.909,     0.000,     0.000,     0.000,     0.000,   1,1,0,/* [                                ] */
    3403,'1 ',1,   2,   2,   515.969,    73.583,     0.000,     0.000,     0.000,     0.000,   1,1,0,/* [                                ] */
    3404,'1 ',1,   2,   2,   438.463,    62.076,     0.000,     0.000,     0.000,     0.000,   1,1,0,/* [                                ] */
    3405,'1 ',1,   2,   2,   448.896,    63.723,     0.000,     0.000,     0.000,     0.000,   1,1,0,/* [                                ] */
    3501,'1 ',1,   2,   2,   625.016,    89.015,     0.000,     0.000,     0.000,     0.000,   1,1,0,/* [                                ] */
    3601,'1 ',1,   2,   2,   104.856,    14.845,     0.000,     0.000,     0.000,     0.000,   1,1,0,/* [                                ] */
    3701,'1 ',1,   1,   9,   317.051,    15.847,     0.000,     0.000,     0.000,     0.000,   1,1,0,/* [                                ] */
    3801,'1 ',1,   2,   2,   191.223,    47.411,     0.000,     0.000,     0.000,     0.000,   1,1,0,/* [                                ] */
    3804,'1 ',1,   2,   2,   223.641,    55.319,     0.000,     0.000,     0.000,     0.000,   1,1,0,/* [                                ] */
    3805,'1 ',1,   2,   2,   499.389,   163.106,     0.000,     0.000,     0.000,     0.000,   1,1,0,/* [                                ] */
    3806,'1 ',1,   2,   2,   289.586,    41.366,     0.000,     0.000,     0.000,     0.000,   1,1,0,/* [                                ] */
    3902,'1 ',1,   2,   2,   152.991,    38.248,     0.000,     0.000,     0.000,     0.000,   1,1,0,/* [                                ] */
    3903,'1 ',1,   2,   2,   213.253,    30.271,     0.000,     0.000,     0.000,     0.000,   1,1,0,/* [                                ] */
    3907,'1 ',1,   2,   2,   461.358,    63.071,     0.000,     0.000,     0.000,     0.000,   1,1,0,/* [                                ] */
    3908,'1 ',1,   2,   2,   200.281,    24.716,     0.000,     0.000,     0.000,     0.000,   1,1,0,/* [                                ] */
    3909,'1 ',1,   2,   2,   170.960,    39.786,     0.000,     0.000,     0.000,     0.000,   1,1,0,/* [                                ] */
    3910,'1 ',1,   2,   2,   241.844,    34.442,     0.000,     0.000,     0.000,     0.000,   1,1,0,/* [                                ] */
    3911,'1 ',1,   2,   2,   233.138,    47.116,     0.000,     0.000,     0.000,     0.000,   1,1,0,/* [                                ] */
    3912,'1 ',1,   2,   2,   174.507,    -0.634,     0.000,     0.000,     0.000,     0.000,   1,1,0,/* [                                ] */
    3913,'1 ',1,   2,   2,   329.548,    43.435,     0.000,     0.000,     0.000,     0.000,   1,1,0,/* [                                ] */
    3914,'1 ',1,   2,   2,   227.755,    52.549,     0.000,     0.000,     0.000,     0.000,   1,1,0,/* [                                ] */
    3915,'1 ',1,   2,   2,   254.460,    53.403,     0.000,     0.000,     0.000,     0.000,   1,1,0,/* [                                ] */
    3916,'1 ',1,   2,   2,   155.005,     0.000,     0.000,     0.000,     0.000,     0.000,   1,1,0,/* [                                ] */
    3917,'1 ',1,   2,   2,   238.189,    43.995,     0.000,     0.000,     0.000,     0.000,   1,1,0,/* [                                ] */
    3918,'1 ',1,   2,   2,   319.281,    75.463,     0.000,     0.000,     0.000,     0.000,   1,1,0,/* [                                ] */
    3919,'1 ',1,   2,   2,   184.512,    24.095,     0.000,     0.000,     0.000,     0.000,   1,1,0,/* [                                ] */
    3920,'1 ',1,   2,   2,   172.503,    23.677,     0.000,     0.000,     0.000,     0.000,   1,1,0,/* [                                ] */
    3921,'1 ',1,   2,   2,   150.890,    34.821,     0.000,     0.000,     0.000,     0.000,   1,1,0,/* [                                ] */
    3922,'1 ',1,   2,   2,   253.450,    31.920,     0.000,     0.000,     0.000,     0.000,   1,1,0,/* [                                ] */
    3923,'1 ',1,   2,   2,   399.063,    67.021,     0.000,     0.000,     0.000,     0.000,   1,1,0,/* [                                ] */
    3924,'1 ',1,   2,   2,   332.490,    47.166,     0.000,     0.000,     0.000,     0.000,   1,1,0,/* [                                ] */
    3926,'1 ',1,   2,   2,   267.355,    16.668,     0.000,     0.000,     0.000,     0.000,   1,1,0,/* [                                ] */
    4002,'1 ',1,   3,  11,   168.696,    22.001,     0.000,     0.000,     0.000,     0.000,   1,1,0,/* [                                ] */
    4004,'1 ',1,   3,  11,   270.476,    35.304,     0.000,     0.000,     0.000,     0.000,   1,1,0,/* [                                ] */
    4005,'1 ',1,   3,  11,   480.114,   157.419,     0.000,     0.000,     0.000,     0.000,   1,1,0,/* [                                ] */
    4008,'1 ',1,   3,  11,   285.145,    37.198,     0.000,     0.000,     0.000,     0.000,   1,1,0,/* [                                ] */
    4009,'1 ',1,   3,  11,  2208.742,   431.395,     0.000,     0.000,     0.000,     0.000,   1,1,0,/* [                                ] */
    4010,'1 ',1,   3,  11,  3133.542,     0.000,     0.000,     0.000,     0.000,     0.000,   1,1,0,/* [                                ] */
    4101,'1 ',1,   3,  13,   995.028,   129.784,     0.000,     0.000,     0.000,     0.000,   1,1,0,/* [                                ] */
    4102,'1 ',1,   3,  13,   480.649,    68.664,     0.000,     0.000,     0.000,     0.000,   1,1,0,/* [                                ] */
    4103,'1 ',1,   3,  13,    11.534,     1.485,     0.000,     0.000,     0.000,     0.000,   1,1,0,/* [                                ] */
    4104,'1 ',1,   3,  13,  2521.452,   328.093,     0.000,     0.000,     0.000,     0.000,   1,1,0,/* [                                ] */
    4201,'1 ',1,   3,  13,  5762.659,   461.013,     0.000,     0.000,     0.000,     0.000,   1,1,0,/* [                                ] */
    4202,'1 ',1,   3,  13,  4558.239,   594.626,     0.000,     0.000,     0.000,     0.000,   1,1,0,/* [                                ] */
    4203,'1 ',1,   3,  13,  4379.174,   571.213,     0.000,     0.000,     0.000,     0.000,   1,1,0,/* [                                ] */
    4204,'1 ',1,   3,  13,  1014.517,   132.339,     0.000,     0.000,     0.000,     0.000,   1,1,0,/* [                                ] */
    5001,'1 ',1,   3,   4,  7574.052,  1721.375,     0.000,     0.000,     0.000,     0.000,   1,1,0,/* [                                ] */
    5002,'1 ',1,   3,   1,  9003.983,  1174.359,     0.000,     0.000,     0.000,     0.000,   1,1,0,/* [                                ] */
    5003,'1 ',1,   3,   1,   616.617,    80.618,     0.000,     0.000,     0.000,     0.000,   1,1,0,/* [                                ] */
    6102,'1 ',1,   3,   6,  1053.144,  -345.277,     0.000,     0.000,     0.000,     0.000,   1,1,0,/* [                                ] */
    6103,'1 ',1,   3,   6,   391.884,    51.109,     0.000,     0.000,     0.000,     0.000,   1,1,0,/* [                                ] */
    6104,'1 ',1,   3,   6,  1694.827,   221.051,     0.000,     0.000,     0.000,     0.000,   1,1,0,/* [                                ] */
    6201,'1 ',1,   3,   8,   205.820,    26.857,     0.000,     0.000,     0.000,     0.000,   1,1,0,/* [                                ] */
    6202,'1 ',1,   3,   8,    88.645,    13.505,     0.000,     0.000,     0.000,     0.000,   1,1,0,/* [                                ] */
    6203,'1 ',1,   3,   8,   612.344,   145.092,     0.000,     0.000,     0.000,     0.000,   1,1,0,/* [                                ] */
    6204,'1 ',1,   3,   8,   698.958,   156.310,     0.000,     0.000,     0.000,     0.000,   1,1,0,/* [                                ] */
    6205,'1 ',1,   3,   8,   489.283,    86.344,     0.000,     0.000,     0.000,     0.000,   1,1,0,/* [                                ] */
    6301,'1 ',1,   3,  14,   516.375,    67.362,     0.000,     0.000,     0.000,     0.000,   1,1,0,/* [                                ] */
    6302,'1 ',1,   3,  14,   591.831,    77.222,     0.000,     0.000,     0.000,     0.000,   1,1,0,/* [                                ] */
    6303,'1 ',1,   3,  14,   746.602,    97.404,     0.000,     0.000,     0.000,     0.000,   1,1,0,/* [                                ] */
    6305,'1 ',1,   3,  14,    60.232,    19.752,     0.000,     0.000,     0.000,     0.000,   1,1,0,/* [                                ] */
    6401,'1 ',1,   1,   9,  1672.454,   218.169,     0.000,     0.000,     0.000,     0.000,   1,1,0,/* [                                ] */
    6402,'1 ',1,   1,   9,   272.521,    35.568,     0.000,     0.000,     0.000,     0.000,   1,1,0,/* [                                ] */
    6403,'1 ',1,   1,   9,     2.198,     0.272,     0.000,     0.000,     0.000,     0.000,   1,1,0,/* [                                ] */
    6404,'1 ',1,   1,   9,    28.981,     3.776,     0.000,     0.000,     0.000,     0.000,   1,1,0,/* [                                ] */
    6501,'1 ',1,   3,  12,   195.548,    64.130,     0.000,     0.000,     0.000,     0.000,   1,1,0,/* [                                ] */
    6502,'1 ',1,   3,  12,  1555.598,   277.679,     0.000,     0.000,     0.000,     0.000,   1,1,0,/* [                                ] */
    6503,'1 ',1,   3,  12,   441.153,   144.603,     0.000,     0.000,     0.000,     0.000,   1,1,0,/* [                                ] */
    6504,'1 ',1,   3,  12,   296.971,    38.731,     0.000,     0.000,     0.000,     0.000,   1,1,0,/* [                                ] */
    6505,'1 ',1,   3,  12,     6.795,     2.231,     0.000,     0.000,     0.000,     0.000,   1,1,0,/* [                                ] */
    6507,'1 ',1,   3,  12,   540.787,   -61.357,     0.000,     0.000,     0.000,     0.000,   1,1,0,/* [                                ] */
    6508,'1 ',1,   3,  12,   131.835,    43.209,     0.000,     0.000,     0.000,     0.000,   1,1,0,/* [                                ] */
    6509,'1 ',1,   3,  12,     8.593,     2.817,     0.000,     0.000,     0.000,     0.000,   1,1,0,/* [                                ] */
    6510,'1 ',1,   3,  12,  1900.043,  -103.882,     0.000,     0.000,     0.000,     0.000,   1,1,0,/* [                                ] */
    7001,'1 ',1,   3,   5,  7000.918,   772.350,     0.000,     0.000,     0.000,     0.000,   1,1,0,/* [                                ] */
    7002,'1 ',1,   3,   5,  2554.834,  -138.069,     0.000,     0.000,     0.000,     0.000,   1,1,0,/* [                                ] */
    8003,'1 ',1,   2,   2,   652.672,    85.141,     0.000,     0.000,     0.000,     0.000,   1,1,0,/* [                                ] */
    8004,'1 ',1,   2,   2,  3787.893,   494.110,     0.000,     0.000,     0.000,     0.000,   1,1,0,/* [                                ] */
    8005,'1 ',1,   2,   2,  1321.252,   172.374,     0.000,     0.000,     0.000,     0.000,   1,1,0,/* [                                ] */
0 / END OF LOAD DATA, BEGIN FIXED SHUNT DATA
0 / END OF FIXED SHUNT DATA, BEGIN GENERATOR DATA 
    1003,'DP',    19.000,     0.000,     0.000,     0.000,1.00000,     0,    94.000, 0.00000E+0, 2.00000E-1, 0.00000E+0, 0.00000E+0,1.00000,1,  100.0,    89.300,     0.000,   1,1.0000,,,,,,,  3,1.0000,/* [                                ] */
    1004,'DP',     9.000,     0.000,     0.000,     0.000,1.00000,     0,    45.000, 0.00000E+0, 2.00000E-1, 0.00000E+0, 0.00000E+0,1.00000,1,  100.0,    42.750,     0.000,   1,1.0000,,,,,,,  3,1.0000,/* [                                ] */
    1032,'C ',   693.000,   245.271,  1030.000, -1030.000,1.01400,  1002,   873.000, 0.00000E+0, 2.00000E-1, 0.00000E+0, 0.00000E+0,1.00000,1,  100.0,   829.350,     0.000,   1,1.0000,,,,,,,  0,1.0000,/* [                                ] */
    1032,'G ',   856.000,   245.271,   357.000,  -357.000,1.01400,  1002,  1050.000, 0.00000E+0, 2.00000E-1, 0.00000E+0, 0.00000E+0,1.00000,1,  100.0,   997.500,     0.000,   1,1.0000,,,,,,,  0,1.0000,/* [                                ] */
    1032,'S ',   520.000,   245.271,   360.000,  -360.000,1.01400,  1002,   638.000, 0.00000E+0, 2.00000E-1, 0.00000E+0, 0.00000E+0,1.00000,1,  100.0,   606.100,     0.000,   1,1.0000,,,,,,,  1,1.0000,/* [                                ] */
    1034,'C ',  1838.000,   245.271,  2294.000, -2294.000,1.01400,  1002,  1944.000, 0.00000E+0, 2.00000E-1, 0.00000E+0, 0.00000E+0,1.00000,1,  100.0,  1846.800,     0.000,   1,1.0000,,,,,,,  0,1.0000,/* [                                ] */
    1034,'G ',  2565.000,   245.271,   918.000,  -918.000,1.01400,  1002,  2700.000, 0.00000E+0, 2.00000E-1, 0.00000E+0, 0.00000E+0,1.00000,1,  100.0,  2565.000,     0.000,   1,1.0000,,,,,,,  0,1.0000,/* [                                ] */
    1034,'S ',     0.000,     0.000,     0.000,     0.000,1.01400,  1002,     1.000, 0.00000E+0, 2.00000E-1, 0.00000E+0, 0.00000E+0,1.00000,0,  100.0,     0.100,     0.000,   1,1.0000,,,,,,,  1,1.0000,/* [                                ] */
    1034,'W ',  1590.000,   245.271,   800.000,  -800.000,1.01400,  1002,  1682.000, 0.00000E+0, 2.00000E-1, 0.00000E+0, 0.00000E+0,1.00000,1,  100.0,  1597.900,     0.000,   1,1.0000,,,,,,,  1,1.0000,/* [                                ] */
    1101,'DP',    59.000,     0.000,     0.000,     0.000,1.00000,     0,   295.000, 0.00000E+0, 2.00000E-1, 0.00000E+0, 0.00000E+0,1.00000,1,  100.0,   280.250,     0.000,   1,1.0000,,,,,,,  3,1.0000,/* [                                ] */
    1131,'C ',   530.000,   129.863,   308.000,  -308.000,1.01000,  1101,  1268.000, 0.00000E+0, 2.00000E-1, 0.00000E+0, 0.00000E+0,1.00000,1,  100.0,  1204.600,     0.000,   1,1.0000,,,,,,,  0,1.0000,/* [                                ] */
    1131,'G ',  2064.000,   129.863,  1916.000, -1916.000,1.01000,  1101,  4934.000, 0.00000E+0, 2.00000E-1, 0.00000E+0, 0.00000E+0,1.00000,1,  100.0,  4687.300,     0.000,   1,1.0000,,,,,,,  0,1.0000,/* [                                ] */
    1131,'S ',     0.000,     0.000,     0.000,     0.000,1.01000,  1101,     1.000, 0.00000E+0, 2.00000E-1, 0.00000E+0, 0.00000E+0,1.00000,0,  100.0,     0.100,     0.000,   1,1.0000,,,,,,,  1,1.0000,/* [                                ] */
    1232,'C ',  2678.000,  -329.024,  1208.000, -1208.000,1.00000,  1202,  4977.000, 0.00000E+0, 2.00000E-1, 0.00000E+0, 0.00000E+0,1.00000,1,  100.0,  4728.150,     0.000,   1,1.0000,,,,,,,  0,1.0000,/* [                                ] */
    1232,'H ',   637.000,  -329.024,   628.000,  -628.000,1.00000,  1202,  1199.000, 0.00000E+0, 2.00000E-1, 0.00000E+0, 0.00000E+0,1.00000,1,  100.0,  1139.050,     0.000,   1,1.0000,,,,,,,  0,1.0000,/* [                                ] */
    1232,'S ',     0.000,     0.000,     0.000,     0.000,1.00000,  1202,     1.000, 0.00000E+0, 2.00000E-1, 0.00000E+0, 0.00000E+0,1.00000,0,  100.0,     0.100,     0.000,   1,1.0000,,,,,,,  1,1.0000,/* [                                ] */
    1301,'DP',    35.000,     0.000,     0.000,     0.000,1.00000,     0,   176.000, 0.00000E+0, 2.00000E-1, 0.00000E+0, 0.00000E+0,1.00000,1,  100.0,   167.200,     0.000,   1,1.0000,,,,,,,  3,1.0000,/* [                                ] */
    1303,'DP',    45.000,     0.000,     0.000,     0.000,1.00000,     0,   224.000, 0.00000E+0, 2.00000E-1, 0.00000E+0, 0.00000E+0,1.00000,1,  100.0,   212.800,     0.000,   1,1.0000,,,,,,,  3,1.0000,/* [                                ] */
    1331,'G ',  1971.000,   162.104,   841.000,  -841.000,1.04500,  1301,  2167.000, 0.00000E+0, 2.00000E-1, 0.00000E+0, 0.00000E+0,1.00000,1,  100.0,  2058.650,     0.000,   1,1.0000,,,,,,,  0,1.0000,/* [                                ] */
    1331,'H ',  2113.000,   162.104,  1219.000, -1219.000,1.04500,  1301,  2328.000, 0.00000E+0, 2.00000E-1, 0.00000E+0, 0.00000E+0,1.00000,1,  100.0,  2211.600,     0.000,   1,1.0000,,,,,,,  0,1.0000,/* [                                ] */
    1331,'S ',     0.000,     0.000,     0.000,     0.000,1.04500,  1301,     1.000, 0.00000E+0, 2.00000E-1, 0.00000E+0, 0.00000E+0,1.00000,0,  100.0,     0.100,     0.000,   1,1.0000,,,,,,,  1,1.0000,/* [                                ] */
    1333,'C ',   212.000,   303.000,   303.000,  -303.000,1.00500,  1303,   418.000, 0.00000E+0, 2.00000E-1, 0.00000E+0, 0.00000E+0,1.00000,1,  100.0,   397.100,     0.000,   1,1.0000,,,,,,,  0,1.0000,/* [                                ] */
    1333,'G ',  3577.000,   377.676,  2746.000, -2746.000,1.00500,  1303,  7011.000, 0.00000E+0, 2.00000E-1, 0.00000E+0, 0.00000E+0,1.00000,1,  100.0,  6660.450,     0.000,   1,1.0000,,,,,,,  0,1.0000,/* [                                ] */
    1333,'S ',  1266.000,   377.676,  1300.000, -1300.000,1.00500,  1303,  2423.000, 0.00000E+0, 2.00000E-1, 0.00000E+0, 0.00000E+0,1.00000,1,  100.0,  2301.850,     0.000,   1,1.0000,,,,,,,  1,1.0000,/* [                                ] */
    1401,'DP',    85.000,     0.000,     0.000,     0.000,1.00000,     0,   425.000, 0.00000E+0, 2.00000E-1, 0.00000E+0, 0.00000E+0,1.00000,1,  100.0,   403.750,     0.000,   1,1.0000,,,,,,,  3,1.0000,/* [                                ] */
    1402,'DP',    70.000,     0.000,     0.000,     0.000,1.00000,     0,   349.000, 0.00000E+0, 2.00000E-1, 0.00000E+0, 0.00000E+0,1.00000,1,  100.0,   331.550,     0.000,   1,1.0000,,,,,,,  3,1.0000,/* [                                ] */
    1431,'G ',  4970.000,   522.376,  3559.000, -3559.000,1.03500,  1401,  9170.000, 0.00000E+0, 2.00000E-1, 0.00000E+0, 0.00000E+0,1.00000,1,  100.0,  8711.500,     0.000,   1,1.0000,,,,,,,  0,1.0000,/* [                                ] */
    1431,'N ',  2251.000,   522.376,  2057.000, -2057.000,1.03500,  1401,  4210.000, 0.00000E+0, 2.00000E-1, 0.00000E+0, 0.00000E+0,1.00000,1,  100.0,  3999.500,     0.000,   1,1.0000,,,,,,,  0,1.0000,/* [                                ] */
    1431,'S ',  1353.000,   522.376,  1000.000, -1000.000,1.03500,  1401,  2419.000, 0.00000E+0, 2.00000E-1, 0.00000E+0, 0.00000E+0,1.00000,1,  100.0,  2298.050,     0.000,   1,1.0000,,,,,,,  1,1.0000,/* [                                ] */
    2030,'E ',   684.000,   159.538,   350.000,  -350.000,1.00000,  2000,   699.000, 0.00000E+0, 2.00000E-1, 0.00000E+0, 0.00000E+0,1.00000,1,  100.0,   664.050,     0.000,   1,1.0000,,,,,,,  0,1.0000,/* [                                ] */
    2030,'G ',  1813.000,   159.538,  1070.000, -1070.000,1.00000,  2000,  2140.000, 0.00000E+0, 2.00000E-1, 0.00000E+0, 0.00000E+0,1.00000,1,  100.0,  2033.000,     0.000,   1,1.0000,,,,,,,  0,1.0000,/* [                                ] */
    2130,'E ',   563.000,    55.105,   254.000,  -254.000,1.03500,  2100,   831.000, 0.00000E+0, 2.00000E-1, 0.00000E+0, 0.00000E+0,1.00000,1,  100.0,   789.450,     0.000,   1,1.0000,,,,,,,  0,1.0000,/* [                                ] */
    2130,'G ',   394.000,    55.105,   200.000,  -200.000,1.03500,  2100,   586.000, 0.00000E+0, 2.00000E-1, 0.00000E+0, 0.00000E+0,1.00000,1,  100.0,   556.700,     0.000,   1,1.0000,,,,,,,  0,1.0000,/* [                                ] */
    2130,'H ',   263.000,    55.105,   250.000,  -250.000,1.03500,  2100,   396.000, 0.00000E+0, 2.00000E-1, 0.00000E+0, 0.00000E+0,1.00000,1,  100.0,   376.200,     0.000,   1,1.0000,,,,,,,  0,1.0000,/* [                                ] */
    2130,'S ',    76.000,    55.105,    86.000,   -86.000,1.03500,  2100,   115.000, 0.00000E+0, 2.00000E-1, 0.00000E+0, 0.00000E+0,1.00000,1,  100.0,   109.250,     0.000,   1,1.0000,,,,,,,  1,1.0000,/* [                                ] */
    2202,'DP',    61.000,     0.000,     0.000,     0.000,1.00000,     0,   305.000, 0.00000E+0, 2.00000E-1, 0.00000E+0, 0.00000E+0,1.00000,1,  100.0,   289.750,     0.000,   1,1.0000,,,,,,,  3,1.0000,/* [                                ] */
    2203,'DP',    67.000,     0.000,     0.000,     0.000,1.00000,     0,   337.000, 0.00000E+0, 2.00000E-1, 0.00000E+0, 0.00000E+0,1.00000,1,  100.0,   320.150,     0.000,   1,1.0000,,,,,,,  3,1.0000,/* [                                ] */
    2233,'DG',   215.000,   163.099,   304.000,  -304.000,1.00500,  2203,  1035.000, 0.00000E+0, 2.00000E-1, 0.00000E+0, 0.00000E+0,1.00000,1,  100.0,   983.250,     0.000,   1,1.0000,,,,,,,  0,1.0000,/* [                                ] */
    2233,'EG',   393.000,   163.099,   611.000,  -611.000,1.00500,  2203,  1837.000, 0.00000E+0, 2.00000E-1, 0.00000E+0, 0.00000E+0,1.00000,1,  100.0,  1745.150,     0.000,   1,1.0000,,,,,,,  0,1.0000,/* [                                ] */
    2233,'S ',     0.000,     0.000,     0.000,     0.000,1.00500,  2203,     1.000, 0.00000E+0, 2.00000E-1, 0.00000E+0, 0.00000E+0,1.00000,0,  100.0,     0.100,     0.000,   1,1.0000,,,,,,,  1,1.0000,/* [                                ] */
    2233,'TG',   152.000,   163.099,   206.000,  -206.000,1.00500,  2203,   733.000, 0.00000E+0, 2.00000E-1, 0.00000E+0, 0.00000E+0,1.00000,1,  100.0,   696.350,     0.000,   1,1.0000,,,,,,,  0,1.0000,/* [                                ] */
    2332,'S ',   878.000,   154.520,   590.000,  -590.000,1.03500,  2302,  1333.000, 0.00000E+0, 2.00000E-1, 0.00000E+0, 0.00000E+0,1.00000,1,  100.0,  1266.350,     0.000,   1,1.0000,,,,,,,  1,1.0000,/* [                                ] */
    2400,'DP',    33.000,     0.000,     0.000,     0.000,1.00000,     0,   166.000, 0.00000E+0, 2.00000E-1, 0.00000E+0, 0.00000E+0,1.00000,1,  100.0,   157.700,     0.000,   1,1.0000,,,,,,,  3,1.0000,/* [                                ] */
    2401,'DP',    35.000,     0.000,     0.000,     0.000,1.00000,     0,   174.000, 0.00000E+0, 2.00000E-1, 0.00000E+0, 0.00000E+0,1.00000,1,  100.0,   165.300,     0.000,   1,1.0000,,,,,,,  3,1.0000,/* [                                ] */
    2402,'DP',    43.000,     0.000,     0.000,     0.000,1.00000,     0,   213.000, 0.00000E+0, 2.00000E-1, 0.00000E+0, 0.00000E+0,1.00000,1,  100.0,   202.350,     0.000,   1,1.0000,,,,,,,  3,1.0000,/* [                                ] */
    2403,'DP',    41.000,     0.000,     0.000,     0.000,1.00000,     0,   207.000, 0.00000E+0, 2.00000E-1, 0.00000E+0, 0.00000E+0,1.00000,1,  100.0,   196.650,     0.000,   1,1.0000,,,,,,,  3,1.0000,/* [                                ] */
    2405,'DP',    33.000,     0.000,     0.000,     0.000,1.00000,     0,   163.000, 0.00000E+0, 2.00000E-1, 0.00000E+0, 0.00000E+0,1.00000,1,  100.0,   154.850,     0.000,   1,1.0000,,,,,,,  3,1.0000,/* [                                ] */
    2406,'DP',    29.000,     0.000,     0.000,     0.000,1.00000,     0,   145.000, 0.00000E+0, 2.00000E-1, 0.00000E+0, 0.00000E+0,1.00000,1,  100.0,   137.750,     0.000,   1,1.0000,,,,,,,  3,1.0000,/* [                                ] */
    2407,'DP',    68.000,     0.000,     0.000,     0.000,1.00000,     0,   342.000, 0.00000E+0, 2.00000E-1, 0.00000E+0, 0.00000E+0,1.00000,1,  100.0,   324.900,     0.000,   1,1.0000,,,,,,,  3,1.0000,/* [                                ] */
    2408,'DP',    69.000,     0.000,     0.000,     0.000,1.00000,     0,   344.000, 0.00000E+0, 2.00000E-1, 0.00000E+0, 0.00000E+0,1.00000,1,  100.0,   326.800,     0.000,   1,1.0000,,,,,,,  3,1.0000,/* [                                ] */
    2409,'DP',    63.000,     0.000,     0.000,     0.000,1.00000,     0,   316.000, 0.00000E+0, 2.00000E-1, 0.00000E+0, 0.00000E+0,1.00000,1,  100.0,   300.200,     0.000,   1,1.0000,,,,,,,  3,1.0000,/* [                                ] */
    2410,'DP',    62.000,     0.000,     0.000,     0.000,1.00000,     0,   311.000, 0.00000E+0, 2.00000E-1, 0.00000E+0, 0.00000E+0,1.00000,1,  100.0,   295.450,     0.000,   1,1.0000,,,,,,,  3,1.0000,/* [                                ] */
    2411,'DP',    43.000,     0.000,     0.000,     0.000,1.00000,     0,   214.000, 0.00000E+0, 2.00000E-1, 0.00000E+0, 0.00000E+0,1.00000,1,  100.0,   203.300,     0.000,   1,1.0000,,,,,,,  3,1.0000,/* [                                ] */
    2431,'S ',   500.000,  -800.000,   800.000,  -800.000,1.00000,     0,  1666.000, 0.00000E+0, 2.00000E-1, 0.00000E+0, 0.00000E+0,1.00000,1,  100.0,  1582.700,     0.000,   1,1.0000,,,,,,,  1,1.0000,/* [                                ] */
    2434,'S ',   500.000,   -24.836,   500.000,  -500.000,1.02000,     0,  1489.000, 0.00000E+0, 2.00000E-1, 0.00000E+0, 0.00000E+0,1.00000,1,  100.0,  1414.550,     0.000,   1,1.0000,,,,,,,  1,1.0000,/* [                                ] */
    2438,'EG',   473.000,    35.510,   728.000,  -728.000,1.00900,  2408,  2292.000, 0.00000E+0, 2.00000E-1, 0.00000E+0, 0.00000E+0,1.00000,1,  100.0,  2177.400,     0.000,   1,1.0000,,,,,,,  0,1.0000,/* [                                ] */
    2438,'ND',     0.000,     0.500,     0.500,     0.000,1.00900,  2408,   100.000, 0.00000E+0, 2.00000E-1, 0.00000E+0, 0.00000E+0,1.00000,1,  100.0,     0.000, -1006.000,   1,1.0000,,,,,,,  0,1.0000,/* [                                ] */
    2438,'RG',  1096.000,    35.510,  1902.000, -1902.000,1.00900,  2408,  5451.000, 0.00000E+0, 2.00000E-1, 0.00000E+0, 0.00000E+0,1.00000,1,  100.0,  5178.450,     0.000,   1,1.0000,,,,,,,  0,1.0000,/* [                                ] */
    2438,'S ',   221.000,    35.510,   800.000,  -800.000,1.00900,  2408,  1146.000, 0.00000E+0, 2.00000E-1, 0.00000E+0, 0.00000E+0,1.00000,1,  100.0,  1088.700,     0.000,   1,1.0000,,,,,,,  1,1.0000,/* [                                ] */
    2438,'SG',   861.000,    35.510,  2301.000, -2301.000,1.00900,  2408,  4110.000, 0.00000E+0, 2.00000E-1, 0.00000E+0, 0.00000E+0,1.00000,1,  100.0,  3904.500,     0.000,   1,1.0000,,,,,,,  0,1.0000,/* [                                ] */
    2438,'SH',   206.000,    35.510,   659.000,  -659.000,1.00900,  2408,  1460.000, 0.00000E+0, 2.00000E-1, 0.00000E+0, 0.00000E+0,1.00000,1,  100.0,  1387.000,     0.000,   1,1.0000,,,,,,,  0,1.0000,/* [                                ] */
    2438,'SW',   664.000,    35.510,   561.000,  -561.000,1.00900,  2408,  3210.000, 0.00000E+0, 2.00000E-1, 0.00000E+0, 0.00000E+0,1.00000,1,  100.0,  3049.500,     0.000,   1,1.0000,,,,,,,  1,1.0000,/* [                                ] */
    2438,'WG',  1176.000,    35.510,  1910.000, -1910.000,1.00900,  2408,  5817.000, 0.00000E+0, 2.00000E-1, 0.00000E+0, 0.00000E+0,1.00000,1,  100.0,  5526.150,     0.000,   1,1.0000,,,,,,,  0,1.0000,/* [                                ] */
    2439,'S ',  1000.000,    82.897,   800.000,  -800.000,1.02000,  2409,  1666.000, 0.00000E+0, 2.00000E-1, 0.00000E+0, 0.00000E+0,1.00000,1,  100.0,  1582.700,     0.000,   1,1.0000,,,,,,,  1,1.0000,/* [                                ] */
    2502,'DP',    93.000,     0.000,     0.000,     0.000,1.00000,     0,   467.000, 0.00000E+0, 2.00000E-1, 0.00000E+0, 0.00000E+0,1.00000,1,  100.0,   443.650,     0.000,   1,1.0000,,,,,,,  3,1.0000,/* [                                ] */
    2503,'DP',    73.000,     0.000,     0.000,     0.000,1.00000,     0,   364.000, 0.00000E+0, 2.00000E-1, 0.00000E+0, 0.00000E+0,1.00000,1,  100.0,   345.800,     0.000,   1,1.0000,,,,,,,  3,1.0000,/* [                                ] */
    2533,'S ',  1899.000,   280.170,  1100.000, -1100.000,1.00900,  2503,  1999.000, 0.00000E+0, 2.00000E-1, 0.00000E+0, 0.00000E+0,1.00000,1,  100.0,  1899.050,     0.000,   1,1.0000,,,,,,,  1,1.0000,/* [                                ] */
    2600,'DC',  1863.906,   608.121,  9999.000, -9999.000,1.05417,     0,  2500.000, 0.00000E+0, 2.00000E-1, 0.00000E+0, 0.00000E+0,1.00000,1,  100.0,  9999.000, -9999.000,   1,1.0000,,,,,,,  1,1.0000,/* [                                ] */
    2613,'DP',    13.000,     0.000,     0.000,     0.000,1.00000,     0,    63.000, 0.00000E+0, 2.00000E-1, 0.00000E+0, 0.00000E+0,1.00000,1,  100.0,    59.850,     0.000,   1,1.0000,,,,,,,  3,1.0000,/* [                                ] */
    2615,'DP',    32.000,     0.000,     0.000,     0.000,1.00000,     0,   158.000, 0.00000E+0, 2.00000E-1, 0.00000E+0, 0.00000E+0,1.00000,1,  100.0,   150.100,     0.000,   1,1.0000,,,,,,,  3,1.0000,/* [                                ] */
    2618,'DP',    35.000,     0.000,     0.000,     0.000,1.00000,     0,   174.000, 0.00000E+0, 2.00000E-1, 0.00000E+0, 0.00000E+0,1.00000,1,  100.0,   165.300,     0.000,   1,1.0000,,,,,,,  3,1.0000,/* [                                ] */
    2619,'DC',  2773.830,     1.445,  9999.000, -9999.000,1.01383,     0,  3500.000, 0.00000E+0, 2.00000E-1, 0.00000E+0, 0.00000E+0,1.00000,1,  100.0,  9999.000, -9999.000,   1,1.0000,,,,,,,  1,1.0000,/* [                                ] */
    2630,'G ',  2269.000,   187.638,  1346.000, -1346.000,1.00400,  2610,  3947.000, 0.00000E+0, 2.00000E-1, 0.00000E+0, 0.00000E+0,1.00000,1,  100.0,  3749.650,     0.000,   1,1.0000,,,,,,,  0,1.0000,/* [                                ] */
    2630,'S ',     0.000,     0.000,     0.000,     0.000,1.00400,  2610,     1.000, 0.00000E+0, 2.00000E-1, 0.00000E+0, 0.00000E+0,1.00000,0,  100.0,     0.100,     0.000,   1,1.0000,,,,,,,  1,1.0000,/* [                                ] */
...